Version 4
SHEET 1 880 680
WIRE 224 80 112 80
WIRE 368 80 288 80
WIRE 112 128 112 80
WIRE 368 128 368 80
WIRE 112 256 112 208
WIRE 256 256 112 256
WIRE 368 256 368 208
WIRE 368 256 256 256
WIRE 256 288 256 256
FLAG 256 288 0
FLAG 368 80 Vout
SYMBOL voltage 112 112 R0
WINDOW 123 0 0 Left 0
WINDOW 39 0 0 Left 0
SYMATTR InstName V1
SYMATTR Value AC 1 0
SYMBOL res 352 112 R0
SYMATTR InstName R1
SYMATTR Value 3.3k
SYMBOL cap 224 96 R270
WINDOW 0 32 32 VTop 2
WINDOW 3 0 32 VBottom 2
SYMATTR InstName C1
SYMATTR Value 0.01µ
TEXT 78 312 Left 2 !.ac dec 100 10 100000
