Version 4
SHEET 1 880 1064
WIRE 304 640 208 640
WIRE 432 640 384 640
WIRE 464 640 432 640
WIRE 720 640 544 640
WIRE 208 720 208 640
WIRE 624 736 624 704
WIRE 432 752 432 640
WIRE 592 752 432 752
WIRE 720 768 720 640
WIRE 720 768 656 768
WIRE 784 768 720 768
WIRE 592 784 384 784
WIRE 160 848 -80 848
WIRE 384 848 384 784
WIRE 384 848 224 848
WIRE 624 848 624 800
WIRE -80 896 -80 848
WIRE 384 912 384 848
WIRE -80 1024 -80 976
WIRE 384 1024 384 992
FLAG -80 1024 0
FLAG 208 720 0
FLAG 784 768 Vout
FLAG 624 704 Vp
FLAG 624 848 Vn
FLAG 608 944 Vp
FLAG 752 944 Vn
FLAG 608 1024 0
FLAG 752 1024 0
FLAG 384 1024 0
SYMBOL res 400 624 R90
WINDOW 0 0 56 VBottom 2
WINDOW 3 32 56 VTop 2
SYMATTR InstName R5
SYMATTR Value 10k
SYMBOL res 560 624 R90
WINDOW 0 0 56 VBottom 2
WINDOW 3 32 56 VTop 2
SYMATTR InstName R6
SYMATTR Value 10k
SYMBOL voltage -80 880 R0
WINDOW 123 0 0 Left 0
WINDOW 39 0 0 Left 0
SYMATTR InstName V4
SYMATTR Value AC 1 0
SYMBOL OpAmps\\opamp2 624 704 R0
SYMATTR InstName U2
SYMATTR Value LM741
SYMBOL voltage 608 928 R0
WINDOW 123 0 0 Left 0
WINDOW 39 0 0 Left 0
SYMATTR InstName V5
SYMATTR Value 15
SYMBOL voltage 752 1040 R180
WINDOW 0 24 96 Left 2
WINDOW 3 24 16 Left 2
WINDOW 123 0 0 Left 0
WINDOW 39 0 0 Left 0
SYMATTR InstName V6
SYMATTR Value 15
SYMBOL res 368 896 R0
SYMATTR InstName R1
SYMATTR Value 3.3k
SYMBOL cap 224 832 R90
WINDOW 0 0 32 VBottom 2
WINDOW 3 32 32 VTop 2
SYMATTR InstName C1
SYMATTR Value 0.01µ
TEXT -128 528 Left 2 !.include LM741\\LM741.mod
TEXT -128 1048 Left 2 !.ac dec 100 10 100000
