Version 4
SHEET 1 880 680
WIRE 288 -16 128 -16
WIRE 512 -16 368 -16
WIRE 544 -16 512 -16
WIRE 128 96 128 -16
WIRE 512 112 512 -16
WIRE 128 272 128 176
WIRE 320 272 128 272
WIRE 512 272 512 176
WIRE 512 272 320 272
WIRE 320 304 320 272
FLAG 320 304 0
FLAG 544 -16 Vout
SYMBOL voltage 128 80 R0
WINDOW 123 0 0 Left 0
WINDOW 39 0 0 Left 0
SYMATTR InstName V1
SYMATTR Value AC 1
SYMBOL res 384 -32 R90
WINDOW 0 0 56 VBottom 2
WINDOW 3 32 56 VTop 2
SYMATTR InstName R1
SYMATTR Value 3.3k
SYMBOL cap 496 112 R0
SYMATTR InstName C1
SYMATTR Value 0.01µ
TEXT 96 328 Left 2 !.ac dec 10 10 100000
